Version 4
SHEET 1 1364 680
WIRE 352 -464 -336 -464
WIRE -336 -384 -336 -464
WIRE -192 -384 -336 -384
WIRE -32 -384 -112 -384
WIRE 32 -384 -32 -384
WIRE 352 -384 112 -384
WIRE 480 -384 352 -384
WIRE 1152 -384 480 -384
WIRE -336 -256 -336 -384
WIRE 480 -208 480 -384
WIRE 1360 -192 1008 -192
WIRE 448 -128 16 -128
WIRE 480 -128 448 -128
WIRE 1152 -80 1152 -384
WIRE 1360 -64 1360 -192
WIRE 1360 -64 1200 -64
WIRE -32 -48 -32 -384
WIRE 368 -48 -32 -48
WIRE 448 0 448 -128
WIRE 736 0 448 0
WIRE 944 0 816 0
WIRE 1008 0 1008 -192
WIRE 1008 0 944 0
WIRE 16 64 16 -128
WIRE 16 64 -96 64
WIRE 48 64 16 64
WIRE 368 64 368 -48
WIRE 368 64 304 64
WIRE 1152 112 1152 16
WIRE -96 192 -96 64
WIRE 48 192 -96 192
WIRE 368 192 304 192
WIRE 368 256 368 192
WIRE 368 256 304 256
WIRE 1152 272 1152 192
WIRE 368 336 368 256
FLAG 368 336 0
FLAG -336 -256 0
FLAG 944 0 gate
FLAG 1152 272 0
SYMBOL References\\LT1431 176 160 R0
SYMATTR InstName U1
SYMBOL voltage 352 -368 R180
WINDOW 0 24 96 Left 2
WINDOW 3 24 16 Left 2
WINDOW 123 0 0 Left 0
WINDOW 39 0 0 Left 0
SYMATTR InstName V1
SYMATTR Value 12
SYMBOL res 464 -224 R0
SYMATTR InstName R1
SYMATTR Value 1k
SYMBOL res -96 -400 R90
WINDOW 0 0 56 VBottom 2
WINDOW 3 32 56 VTop 2
SYMATTR InstName R3
SYMATTR Value {R2}
SYMBOL res 128 -400 R90
WINDOW 0 0 56 VBottom 2
WINDOW 3 32 56 VTop 2
SYMATTR InstName R4
SYMATTR Value {R1}
SYMBOL pmos 1200 16 R180
SYMATTR InstName M1
SYMATTR Value IRF7204
SYMBOL res 1136 96 R0
SYMATTR InstName R5
SYMATTR Value 100
SYMBOL res 832 -16 R90
WINDOW 0 0 56 VBottom 2
WINDOW 3 32 56 VTop 2
SYMATTR InstName R2
SYMATTR Value 1k
TEXT -448 -96 Left 2 !.tran 1
TEXT -344 -168 Left 2 !.param R1=73k\n.param R2=100k-R1
TEXT 400 -432 Left 2 ;Cutoff je na 9.2V
